/*--------------------------------*- C++ -*----------------------------------*\
  =========                 |
  \\      /  F ield         | OpenFOAM: The Open Source CFD Toolbox
   \\    /   O peration     | Website:  https://openfoam.org
    \\  /    A nd           | Version:  11
     \\/     M anipulation  |
\*---------------------------------------------------------------------------*/
FoamFile
{
    format      ascii;
    class       dictionary;
    object      fvSolution;
}
// * * * * * * * * * * * * * * * * * * * * * * * * * * * * * * * * * * * * * //

solvers
{
    p
    {
        solver          GAMG;
        smoother        DIC;
        tolerance       1e-6;
        relTol          0.05;
    }

    "(U|sigma)"
    {
        solver          smoothSolver;
        smoother        symGaussSeidel;
        tolerance       1e-6;
        relTol          0.1;
    }

    // "(U|sigma)"
    // {
    //     solver          GAMG;
    //     smoother        GaussSeidel;
    //     tolerance       1e-6;
    //     relTol          0.05;
    // }

    pFinal
    {
        $p;
        relTol          0;
    }

    "(U|sigma)Final"
    {
        $U;
        relTol          0;
    }
}

// PIMPLE
// {
//     momentumPredictor   off;
//     nOuterCorrectors    15;
//     nCorrectors         3;
//     nNonOrthogonalCorrectors 0;
//     pRefCell            0;
//     pRefValue           0;
//     transportCorrectionFinal no;
// }

SIMPLE
{
    // nNonOrthogonalCorrectors 5;
    // consistent yes;
    // momentumPredictor   on;
    // nOuterCorrectors    5;
    // nCorrectors         1;
    nNonOrthogonalCorrectors 1;
    consistent yes;
    momentumPredictor   on;
    nOuterCorrectors    1;
    nCorrectors         1;
    // nNonOrthogonalCorrectors 0;
    // pRefCell            0;
    // pRefValue           0;
    // transportCorrectionFinal no;

    residualControl
    {
        p               1e-6;
        U               1e-6;
    }
}

relaxationFactors
{
    equations
    {
        ".*"   0.9;
    }
}

// ************************************************************************* //
