/*--------------------------------*- C++ -*----------------------------------*\
  =========                 |
  \\      /  F ield         | OpenFOAM: The Open Source CFD Toolbox
   \\    /   O peration     | Website:  https://openfoam.org
    \\  /    A nd           | Version:  11
     \\/     M anipulation  |
\*---------------------------------------------------------------------------*/
FoamFile
{
    format      ascii;
    class       volScalarField;
    object      p;
}
// * * * * * * * * * * * * * * * * * * * * * * * * * * * * * * * * * * * * * //

#include "../include/includeSettings"

dimensions      [0 2 -2 0 0 0 0];

internalField   uniform 0;

boundaryField
{
    giroide_outlet1
    {
        type            fixedValue;
        value           uniform 0;
    }
    giroide_outlet2
    {
        type            fixedValue;
        value           uniform 0;
    }
    giroide_wall
    {
        type            zeroGradient;
    }
    giroide_inlet1
    {
        type            zeroGradient;
    }
    giroide_inlet2
    {
        type            zeroGradient;
    }
}

// ************************************************************************* //
